Circuit: * E:\SOFTWARE\EXERCISE LTSPICE\WHY_CMOS_WHY\regular_cmos.asc

Instance "m2": Length shorter than recommended for a level 1 MOSFET.
Instance "m2": Width narrower than recommended for a level 1 MOSFET.
Instance "m1": Length shorter than recommended for a level 1 MOSFET.
Instance "m1": Width narrower than recommended for a level 1 MOSFET.
Direct Newton iteration for .op point succeeded.

Date: Mon Mar 09 11:24:34 2026
Total elapsed time: 0.080 seconds.

tnom = 27
temp = 27
method = modified trap
totiter = 1506
traniter = 1500
tranpoints = 711
accept = 613
rejected = 98
matrix size = 5
fillins = 0
solver = Normal
Matrix Compiler1: 132 bytes object code size  0.1/0.1/[0.1]
Matrix Compiler2: off  [0.1]/0.1/0.1

