Circuit: * E:\SOFTWARE\EXERCISE LTSPICE\WHY_CMOS_WHY\reversed_cmos.asc

Instance "m2": Length shorter than recommended for a level 1 MOSFET.
Instance "m2": Width narrower than recommended for a level 1 MOSFET.
Instance "m1": Length shorter than recommended for a level 1 MOSFET.
Instance "m1": Width narrower than recommended for a level 1 MOSFET.
Direct Newton iteration for .op point succeeded.

Date: Mon Mar 09 11:28:28 2026
Total elapsed time: 0.075 seconds.

tnom = 27
temp = 27
method = modified trap
totiter = 1252
traniter = 1246
tranpoints = 624
accept = 543
rejected = 81
matrix size = 5
fillins = 0
solver = Normal
Matrix Compiler1: 204 bytes object code size  0.1/0.1/[0.1]
Matrix Compiler2: off  [0.1]/0.1/0.1

